Version 4
SHEET 1 880 888
FLAG 208 48 0
FLAG -192 48 0
SYMBOL /PowerProducts/LT3751 32 480 R0
SYMATTR InstName U1
SYMBOL /voltage 208 -64 R0
SYMATTR InstName V1
SYMATTR Value 12
SYMATTR SpiceLine Rser=0
SYMBOL /voltage -192 -64 R0
SYMATTR InstName V2
SYMATTR Value 48
SYMATTR SpiceLine Rser=0
