Version 4
SHEET 1 1644 980
WIRE -32 -96 -192 -96
WIRE 64 -96 -32 -96
WIRE 608 -96 64 -96
WIRE 208 -80 96 -80
WIRE 400 -80 208 -80
WIRE -192 -48 -192 -96
WIRE 208 -48 208 -80
WIRE -32 -32 -32 -96
WIRE -192 48 -192 32
WIRE 208 48 208 32
WIRE 336 64 336 32
WIRE 400 64 400 -80
WIRE 400 64 336 64
WIRE -32 80 -32 48
WIRE 96 80 96 -80
WIRE -128 144 -224 144
WIRE 240 144 192 144
WIRE 400 144 320 144
WIRE -320 160 -400 160
WIRE -224 160 -224 144
WIRE -224 160 -240 160
WIRE 800 176 736 176
WIRE 912 176 864 176
WIRE 1056 176 912 176
WIRE 1152 176 1056 176
WIRE 912 224 912 176
WIRE 1056 224 1056 176
WIRE 288 240 192 240
WIRE 608 240 608 -96
WIRE 736 240 736 176
WIRE -512 256 -512 176
WIRE -400 256 -400 160
WIRE -400 256 -512 256
WIRE -320 256 -400 256
WIRE -128 256 -128 240
WIRE -128 256 -240 256
WIRE 288 272 288 240
WIRE 400 320 400 144
WIRE 480 320 400 320
WIRE 608 320 480 320
WIRE 912 320 912 288
WIRE 912 320 736 320
WIRE 1056 320 1056 288
WIRE 1056 320 912 320
WIRE -320 336 -432 336
WIRE -128 336 -240 336
WIRE 368 336 192 336
WIRE 1056 352 1056 320
WIRE 480 368 480 320
WIRE 1008 368 912 368
WIRE 912 384 912 368
WIRE -528 432 -528 384
WIRE -432 432 -432 336
WIRE -432 432 -528 432
WIRE -336 432 -432 432
WIRE -128 432 -256 432
WIRE 272 432 192 432
WIRE 1008 432 1008 368
WIRE 1152 432 1152 176
WIRE 1152 432 1008 432
WIRE 368 448 368 336
WIRE 432 448 368 448
WIRE -624 480 -704 480
WIRE 480 496 480 464
WIRE 480 496 448 496
WIRE -704 512 -704 480
WIRE -624 512 -624 480
WIRE -256 512 -624 512
WIRE -256 528 -256 512
WIRE -128 528 -256 528
WIRE 448 528 448 496
WIRE 448 528 192 528
WIRE 912 528 912 464
WIRE -128 624 -208 624
WIRE 448 624 448 608
WIRE 448 624 192 624
WIRE -704 640 -704 592
WIRE -208 640 -208 624
WIRE 912 640 912 608
WIRE 912 640 800 640
WIRE 448 656 448 624
WIRE 912 656 912 640
WIRE -672 720 -672 704
WIRE -304 720 -672 720
WIRE -128 720 -224 720
WIRE 448 720 192 720
WIRE 800 720 800 640
WIRE 800 720 448 720
WIRE 448 736 448 720
WIRE 912 752 912 736
WIRE 912 752 832 752
WIRE 912 768 912 752
WIRE -672 816 -672 720
WIRE -304 816 -672 816
WIRE -128 816 -224 816
WIRE 288 816 192 816
WIRE 448 832 448 800
WIRE 832 832 832 752
WIRE 832 832 448 832
WIRE 32 912 32 880
WIRE 288 960 288 816
FLAG 208 48 0
FLAG -192 48 0
FLAG 1056 352 0
FLAG 912 768 0
FLAG 32 912 0
FLAG 288 960 0
FLAG 448 656 0
FLAG 336 32 VCC
FLAG 272 432 VCC
FLAG 1152 176 vout
FLAG -208 640 0
FLAG 64 -96 vtrans
FLAG -528 384 vtrans
FLAG -512 176 VCC
FLAG -672 704 VCC
FLAG -704 640 0
FLAG 288 272 0
SYMBOL /PowerProducts/LT3751 32 480 R0
SYMATTR InstName U1
SYMBOL /voltage 208 -64 R0
SYMATTR InstName V1
SYMATTR Value 12
SYMATTR SpiceLine Rser=0
SYMBOL /voltage -192 -64 R0
SYMATTR InstName V2
SYMATTR Value 48
SYMATTR SpiceLine Rser=0
SYMBOL res -48 -48 R0
SYMATTR InstName R1
SYMATTR Value 80.6k
SYMBOL ind2 592 224 R0
SYMATTR InstName L1
SYMATTR Value 1.125µH
SYMATTR Type ind
SYMATTR SpiceLine Rser=2.815m
SYMBOL ind2 752 336 R180
WINDOW 0 36 80 Left 2
WINDOW 3 36 40 Left 2
SYMATTR InstName L2
SYMATTR Value 112.5µH
SYMATTR Type ind
SYMATTR SpiceLine Rser=200m
SYMBOL cap 896 224 R0
SYMATTR InstName C1
SYMATTR Value 2200pf
SYMBOL cap 1040 224 R0
SYMATTR InstName C2
SYMATTR Value 80µf
SYMBOL res 896 368 R0
SYMATTR InstName R2
SYMATTR Value 2Meg
SYMBOL res 896 512 R0
SYMATTR InstName R3
SYMATTR Value 2Meg
SYMBOL res 896 640 R0
SYMATTR InstName R4
SYMATTR Value 4.87k
SYMBOL cap 432 736 R0
SYMATTR InstName C3
SYMATTR Value 10nF
SYMBOL res 432 512 R0
SYMATTR InstName R6
SYMATTR Value 1m
SYMBOL res 336 128 R90
WINDOW 0 0 56 VBottom 2
WINDOW 3 32 56 VTop 2
SYMATTR InstName R7
SYMATTR Value 36.5k
SYMBOL res -208 704 R90
WINDOW 0 0 56 VBottom 2
WINDOW 3 32 56 VTop 2
SYMATTR InstName R9
SYMATTR Value 100k
SYMBOL res -208 800 R90
WINDOW 0 0 56 VBottom 2
WINDOW 3 32 56 VTop 2
SYMATTR InstName R10
SYMATTR Value 100k
SYMBOL res -240 416 R90
WINDOW 0 0 56 VBottom 2
WINDOW 3 32 56 VTop 2
SYMATTR InstName R11
SYMATTR Value 1.3Meg
SYMBOL res -224 320 R90
WINDOW 0 0 56 VBottom 2
WINDOW 3 32 56 VTop 2
SYMATTR InstName R12
SYMATTR Value 453k
SYMBOL res -224 240 R90
WINDOW 0 0 56 VBottom 2
WINDOW 3 32 56 VTop 2
SYMATTR InstName R13
SYMATTR Value 453k
SYMBOL res -224 144 R90
WINDOW 0 0 56 VBottom 2
WINDOW 3 32 56 VTop 2
SYMATTR InstName R14
SYMATTR Value 169k
SYMBOL voltage -704 496 R0
WINDOW 3 24 38 Left 2
SYMATTR Value PULSE(0 12 1m 100n 100n 100)
SYMATTR InstName V3
SYMBOL nmos 1424 368 R0
SYMATTR InstName M1
SYMATTR Value IXFK180N25T
SYMBOL diode 800 192 R270
WINDOW 0 32 32 VTop 2
WINDOW 3 0 32 VBottom 2
SYMATTR InstName D1
SYMATTR Value DNDSH25170A
SYMBOL nmos 432 368 R0
SYMATTR InstName M2
SYMATTR Value IPB200N25N3
TEXT 600 360 Left 2 !K1 L1 L2 1
TEXT -624 -144 Left 2 !.tran 10ns 100m uic
TEXT 816 88 Left 2 !.model IXFK180N25T NMOS(Vds=250 Ron=12.9m Qg=345n)
TEXT 856 -48 Left 2 !.model DNDSH25170A D (RS=0 BV=1700 IBV=50u )
